Version 4
SHEET 1 1908 932
WIRE -464 0 -464 -48
WIRE -464 0 -656 0
WIRE -32 96 -240 96
WIRE 176 128 128 128
WIRE 288 128 176 128
WIRE 416 128 368 128
WIRE 464 128 416 128
WIRE 1728 144 1728 112
WIRE 1728 144 1504 144
WIRE -32 160 -96 160
WIRE -656 192 -656 0
WIRE 1504 208 1504 144
WIRE -240 224 -240 96
WIRE -240 224 -480 224
WIRE -96 240 -96 160
WIRE 176 240 176 208
WIRE 176 240 -96 240
WIRE 1728 256 1728 144
WIRE 176 272 176 240
WIRE 416 272 416 128
WIRE 544 272 416 272
WIRE -656 304 -656 272
WIRE 848 304 704 304
WIRE 960 304 928 304
WIRE -656 320 -656 304
WIRE 544 336 416 336
WIRE 1504 352 1504 288
WIRE 176 384 176 352
WIRE 176 384 -96 384
WIRE 176 416 176 384
WIRE 1504 448 1504 416
WIRE 1728 448 1728 336
WIRE 1728 448 1504 448
WIRE -96 464 -96 384
WIRE -32 464 -96 464
WIRE 176 496 128 496
WIRE 288 496 176 496
WIRE 416 496 416 336
WIRE 416 496 368 496
WIRE 528 496 416 496
WIRE 704 496 704 304
WIRE 704 496 608 496
WIRE -480 528 -480 304
WIRE -224 528 -480 528
WIRE -32 528 -224 528
WIRE -224 560 -224 528
WIRE 1728 576 1728 448
WIRE 960 592 960 304
WIRE 1088 592 960 592
WIRE 1360 624 1248 624
WIRE 1440 624 1360 624
WIRE 1664 624 1520 624
WIRE 1680 624 1664 624
WIRE 1040 656 992 656
WIRE 1088 656 1040 656
WIRE 1728 704 1728 672
WIRE 704 768 704 704
WIRE 848 768 704 768
WIRE 992 768 992 656
WIRE 992 768 928 768
WIRE 1040 816 1040 656
WIRE 1104 816 1040 816
WIRE 1360 816 1360 624
WIRE 1360 816 1184 816
WIRE 704 832 704 768
FLAG 544 128 VR
FLAG -464 -48 Vcc
FLAG 32 80 Vcc
FLAG 608 256 Vcc
FLAG 32 544 Vcc
FLAG 1152 672 Vcc
FLAG 704 624 Vcc
FLAG 704 912 0
FLAG 1728 112 Vcc
FLAG 1728 704 0
FLAG 32 176 0
FLAG 32 448 0
FLAG 608 352 0
FLAG 1152 576 0
FLAG -224 640 0
FLAG -224 448 Vcc
FLAG -656 400 0
FLAG -656 304 VR
FLAG -464 80 0
DATAFLAG 1360 624 ""
DATAFLAG 752 304 ""
DATAFLAG -224 528 ""
DATAFLAG -224 96 ""
DATAFLAG 1728 448 ""
DATAFLAG 1552 144 ""
DATAFLAG 704 768 ""
DATAFLAG -656 288 ""
DATAFLAG 480 272 ""
DATAFLAG 480 336 ""
SYMBOL res 160 112 R0
SYMATTR InstName R1
SYMATTR Value 100k
SYMBOL res 160 256 R0
SYMATTR InstName R2
SYMATTR Value 68
SYMBOL res 160 400 R0
SYMATTR InstName R3
SYMATTR Value 100k
SYMBOL res 384 112 R90
WINDOW 0 0 56 VBottom 2
WINDOW 3 32 56 VTop 2
SYMATTR InstName R4
SYMATTR Value 560k
SYMBOL res 384 480 R90
WINDOW 0 0 56 VBottom 2
WINDOW 3 32 56 VTop 2
SYMATTR InstName R5
SYMATTR Value 560k
SYMBOL res 624 480 R90
WINDOW 0 0 56 VBottom 2
WINDOW 3 32 56 VTop 2
SYMATTR InstName R6
SYMATTR Value 560k
SYMBOL res 560 112 R90
WINDOW 0 0 56 VBottom 2
WINDOW 3 32 56 VTop 2
SYMATTR InstName R7
SYMATTR Value 560k
SYMBOL voltage -464 -16 R0
WINDOW 123 0 0 Left 0
WINDOW 39 0 0 Left 0
SYMATTR InstName V2
SYMATTR Value 18
SYMBOL opamp2Offset 624 304 R0
SYMATTR InstName X3
SYMBOL res 688 608 R0
SYMATTR InstName R8
SYMATTR Value 10K
SYMBOL res 688 816 R0
SYMATTR InstName R9
SYMATTR Value 11K
SYMBOL res 944 752 R90
WINDOW 0 0 56 VBottom 2
WINDOW 3 32 56 VTop 2
SYMATTR InstName R10
SYMATTR Value 1K
SYMBOL opamp1Offset 1168 624 M180
SYMATTR InstName X4
SYMBOL res 1200 800 R90
WINDOW 0 0 56 VBottom 2
WINDOW 3 32 56 VTop 2
SYMATTR InstName R11
SYMATTR Value 180k
SYMBOL res 1536 608 R90
WINDOW 0 0 56 VBottom 2
WINDOW 3 32 56 VTop 2
SYMATTR InstName R12
SYMATTR Value 18k
SYMBOL npn 1664 576 R0
SYMATTR InstName Q1
SYMATTR Value BC238
SYMBOL res 1488 192 R0
SYMATTR InstName R13
SYMATTR Value 1k
SYMBOL res 1712 240 R0
SYMATTR InstName R14
SYMATTR Value 330
SYMBOL LED 1488 352 R0
SYMATTR InstName D1
SYMATTR Value L128-DRD1003500000
SYMBOL res 944 288 R90
WINDOW 0 0 56 VBottom 2
WINDOW 3 32 56 VTop 2
SYMATTR InstName R15
SYMATTR Value 1k
SYMBOL voltage -480 208 R0
WINDOW 123 0 0 Left 0
WINDOW 39 0 0 Left 0
SYMATTR InstName V4
SYMATTR Value 2.508m
SYMBOL res -240 432 R0
SYMATTR InstName R16
SYMATTR Value 39k
SYMBOL res -240 544 R0
SYMATTR InstName R17
SYMATTR Value 33k
SYMBOL res -672 176 R0
SYMATTR InstName R18
SYMATTR Value 3.9k
SYMBOL res -672 304 R0
SYMATTR InstName R19
SYMATTR Value 2.7k
SYMBOL opamp1Offset 48 128 R0
SYMATTR InstName X1
SYMBOL opamp2Offset 48 496 M180
SYMATTR InstName X2
TEXT -816 632 Left 2 ;.op
TEXT 104 720 Left 2 !.lib BC238.ti.lib
TEXT -576 584 Left 2 !.dc V4 0 3m 0.1m
